ipss.editor/workspace/custom/test9bus.psse
0    100.00          / WED AUG 05, 1992  14:31
 13/05/91 CYME INTERNATIONAL    100.0 1991 S                
 IEEE 300-BUS TEST SYSTEM                                   
    1 1   90.000   49.000    0.000    0.000   1 1.02691    6.5238 ' 1      ' 115.00   1
  115 1    0.000    0.000    0.000    0.000   2 0.90038   12.1838 ' 2      ' 115.00   2
  189 1    7.000    2.000    0.000    0.000   3 0.99753  -26.2469 ' 3      ' 66.000   3
 9001 1    0.000    0.000    0.000    0.000   1 1.01517  -11.3443 ' 1      ' 115.00   9
 9533 1    1.190    0.410    0.100    0.000   1 1.04052  -18.2972 ' 1      '  2.300   9
 0
    8 1   -5.000   10.000   10.000  -10.000 1.01530     0 100.000 0.00000 1.00000 0.00000 0.00000 1.00000 1 100.0 9999.00 -9999.0
   10 1   -5.000   20.000   20.000  -20.000 1.02050     0 100.000 0.00000 1.00000 0.00000 0.00000 1.00000 1 100.0 9999.00 -9999.0
   20 1  -10.000   20.000   20.000  -20.000 1.00100     0 100.000 0.00000 1.00000 0.00000 0.00000 1.00000 1 100.0 9999.00 -9999.0
  241 1  574.784  -35.209  600.000 -600.000 1.05000     0 100.000 0.00000 1.00000 0.00000 0.00000 1.00000 1 100.0 9999.00 -9999.0
  242 1  170.000   52.200  100.000   40.000 0.99300     0 100.000 0.00000 1.00000 0.00000 0.00000 1.00000 1 100.0 9999.00 -9999.0
  243 1   84.000   52.325   80.000   40.000 1.01000     0 100.000 0.00000 1.00000 0.00000 0.00000 1.00000 1 100.0 9999.00 -9999.0
 7001 1  467.000  147.788  210.000 -210.000 1.05070     0 100.000 0.00000 1.00000 0.00000 0.00000 1.00000 1 100.0 9999.00 -9999.0
 7002 1  623.000  103.313  280.000 -280.000 1.05070     0 100.000 0.00000 1.00000 0.00000 0.00000 1.00000 1 100.0 9999.00 -9999.0
 7003 1 1210.000  420.000  420.000 -420.000 1.03230     0 100.000 0.00000 1.00000 0.00000 0.00000 1.00000 1 100.0 9999.00 -9999.0
 9002 1   -4.200    2.000    2.000   -2.000 0.99450     0 100.000 0.00000 1.00000 0.00000 0.00000 1.00000 1 100.0 9999.00 -9999.0
 9055 1    8.000    3.662    6.000   -6.000 1.00000     0 100.000 0.00000 1.00000 0.00000 0.00000 1.00000 1 100.0 9999.00 -9999.0
 0
    3      1 1   0.00000  0.05200 0.00000    0.00    0.00    0.00 0.94700    0.000   0.00000   0.00000   0.00000   0.00000 1
    1      5 1   0.00100  0.00600 0.00000    0.00    0.00    0.00 0.0          0.0   0.00000   0.00000   0.00000   0.00000 1
  245    247 1   0.03600  0.21190 0.00000    0.00    0.00    0.00 0.0          0.0   0.00000   0.00000   0.00000   0.00000 1
  246    247 1   0.02680  0.12850 0.00000    0.00    0.00    0.00 0.0          0.0   0.00000   0.00000   0.00000   0.00000 1
  247    248 1   0.04280  0.12150 0.00000    0.00    0.00    0.00 0.0          0.0   0.00000   0.00000   0.00000   0.00000 1
  248    249 1   0.03510  0.10040 0.00000    0.00    0.00    0.00 0.0          0.0   0.00000   0.00000   0.00000   0.00000 1
  249    250 1   0.06160  0.18570 0.00000    0.00    0.00    0.00 0.0          0.0   0.00000   0.00000   0.00000   0.00000 1
 9001   9005 1   0.00080  0.00348 0.00000    0.00    0.00    0.00 0.0          0.0   0.00000   0.00000   0.00000   0.00000 1
 9001   9006 1   0.02439  0.43682 0.00000    0.00    0.00    0.00 0.97931    0.000   0.00000   0.00000   0.00000   0.00000 1
 9053   9533 1   0.00000  0.75000 0.00000    0.00    0.00    0.00 0.95830    0.000   0.00000   0.00000   0.00000   0.00000 1
 0
    3     1 1       1  1.10000  0.90000  1.10000  0.90000  0.00200 0 1
 9001  9006 1    9006  1.14780  0.93910  1.01000  0.99000  0.00417 0 1
 9001  9012 1    9012  1.14780  0.93910  1.01000  0.99000  0.00417 0 1
 0
   1  7049    100.000      5.000 '0       '
   2   138    -40.000      5.000 '0       '
   3   241    -60.000      5.000 '0       '
 0
  1 1     6.2000    -100.00     460.00     300.00     0.0000    0.10000 I       0.00
   119  4 20.00 15.00  0.0000  6.8000  115.0 0.74780 0.98115 1.50000 0.51000 0.00625     0     0     0 1 
   120  4 18.00 20.00  0.0000  6.8000  115.0 0.74780 0.94750 1.50000 0.51000 0.00625     0     0     0 1 
 0
 0
 0
 0
 0
 0
